[TITLE]


[JUNCTIONS]
;ID              	Elev        	Demand      	Pattern         
 1               	24.90       	0.0         	                	;
 2               	29.90       	48.97       	                	;
 3               	31.40       	37.70       	                	;
 4               	40.77       	52.41       	                	;
 5               	24.30       	20.65       	                	;
 6               	28.00       	231.75      	                	;
 7               	22.40       	65.66       	                	;
 8               	31.40       	29.12       	                	;
 9               	21.90       	9.95        	                	;
 10              	17.60       	3.87        	                	;
 11              	17.80       	17.50       	                	;
 12              	22.90       	10.43       	                	;
 13              	14.10       	9.87        	                	;
 14              	17.40       	11.05       	                	;
 15              	19.40       	26.27       	                	;
 16              	17.10       	14.53       	                	;
 17              	19.90       	17.66       	                	;
 18              	20.60       	17.33       	                	;
 19              	36.40       	8.29        	                	;
 20              	23.50       	79.86       	                	;
 21              	26.30       	115.74      	                	;
 22              	34.30       	7.36        	                	;
 23              	20.80       	9.36        	                	;
 24              	26.30       	23.95       	                	;
 25              	15.40       	20.38       	                	;
 26              	11.40       	26.38       	                	;
 27              	11.40       	20.78       	                	;
 28              	11.10       	22.78       	                	;
 29              	10.50       	34.56       	                	;
 30              	11.60       	24.05       	                	;
 31              	25.20       	18.37       	                	;
 32              	12.90       	47.28       	                	;
 33              	12.90       	54.41       	                	;
 34              	18.20       	0.0         	                	;
 35              	25.20       	7.72        	                	;

[RESERVOIRS]
;ID              	Head        	Pattern         
 0              	58.00       	                	;

[TANKS]
;ID              	Elevation   	InitLevel   	MinLevel    	MaxLevel    	Diameter    	MinVol      	VolCurve        	Overflow

[PIPES]
;ID              	Node1           	Node2           	Length      	Diameter    	Roughness   	MinorLoss   	Status
 1               	0               	1               	200         	1100.0      	100         	0           	Open  	;
 2               	1               	2               	470         	1100.0      	100         	0           	Open  	;
 3               	2               	3               	80          	1100.0      	100         	0           	Open  	;
 4               	3               	4               	370         	900.0       	100         	0           	Open  	;
 5               	4               	6               	410         	900.0       	100         	0           	Open  	;
 6               	6               	7               	540         	800.0       	100         	0           	Open  	;
 7               	7               	11              	530         	600.0       	100         	0           	Open  	;
 8               	11              	16              	130         	500.0       	100         	0           	Open  	;
 9               	16              	17              	470         	500.0       	100         	0           	Open  	;
 10              	3               	4               	370         	600.0       	100         	0           	Open  	;
 11              	3               	5               	470         	100.0       	100         	0           	Open  	;
 12              	4               	5               	380         	100.0       	100         	0           	Open  	;
 13              	4               	6               	410         	600.0       	100         	0           	Open  	;
 14              	6               	7               	540         	600.0       	100         	0           	Open  	;
 15              	7               	8               	170         	200.0       	100         	0           	Open  	;
 16              	9               	8               	390         	80.0        	100         	0           	Open  	;
 17              	5               	9               	510         	150.0       	100         	0           	Open  	;
 18              	9               	10              	600         	150.0       	100         	0           	Open  	;
 19              	7               	11              	530         	600.0       	100         	0           	Open  	;
 20              	11              	16              	130         	600.0       	100         	0           	Open  	;
 21              	11              	12              	530         	400.0       	100         	0           	Open  	;
 22              	10              	15              	560         	150.0       	100         	0           	Open  	;
 23              	15              	14              	440         	400.0       	100         	0           	Open  	;
 24              	12              	14              	160         	400.0       	100         	0           	Open  	;
 25              	12              	13              	350         	150.0       	100         	0           	Open  	;
 26              	16              	13              	170         	150.0       	100         	0           	Open  	;
 27              	16              	19              	350         	200.0       	100         	0           	Open  	;
 28              	19              	20              	590         	100.0       	100         	0           	Open  	;
 29              	19              	18              	400         	80.0        	100         	0           	Open  	;
 30              	16              	17              	470         	600.0       	100         	0           	Open  	;
 31              	13              	27              	350         	100.0       	100         	0           	Open  	;
 32              	27              	14              	540         	300.0       	100         	0           	Open  	;
 33              	27              	26              	230         	100.0       	100         	0           	Open  	;
 34              	25              	26              	270         	100.0       	100         	0           	Open  	;
 35              	26              	28              	400         	100.0       	100         	0           	Open  	;
 36              	15              	28              	620         	150.0       	100         	0           	Open  	;
 37              	26              	29              	600         	100.0       	100         	0           	Open  	;
 38              	30              	29              	350         	400.0       	100         	0           	Open  	;
 39              	25              	30              	540         	700.0       	100         	0           	Open  	;
 40              	30              	35              	370         	450.0       	100         	0           	Open  	;
 41              	17              	25              	90          	700.0       	100         	0           	Open  	;
 42              	25              	31              	540         	100.0       	100         	0           	Open  	;
 43              	17              	18              	220         	700.0       	100         	0           	Open  	;
 44              	18              	24              	390         	700.0       	100         	0           	Open  	;
 45              	24              	23              	400         	700.0       	100         	0           	Open  	;
 46              	20              	24              	560         	80.0        	100         	0           	Open  	;
 47              	11              	20              	900         	500.0       	100         	0           	Open  	;
 48              	20              	21              	310         	500.0       	100         	0           	Open  	;
 49              	21              	23              	300         	300.0       	100         	0           	Open  	;
 50              	20              	23              	510         	400.0       	100         	0           	Open  	;
 51              	15              	22              	250         	700.0       	100         	0           	Open  	;
 52              	23              	32              	350         	300.0       	100         	0           	Open  	;
 53              	31              	32              	380         	100.0       	100         	0           	Open  	;
 54              	32              	33              	690         	200.0       	100         	0           	Open  	;
 55              	31              	35              	670         	200.0       	100         	0           	Open  	;
 56              	33              	34              	870         	200.0       	100         	0           	Open  	;
 57              	35              	34              	620         	200.0       	100         	0           	Open  	;
 58              	29              	22              	580         	400.0       	100         	0           	Open  	;

[PUMPS]
;ID              	Node1           	Node2           	Parameters

[VALVES]
;ID              	Node1           	Node2           	Diameter    	Type	Setting     	MinorLoss   

[TAGS]

[DEMANDS]
;Junction        	Demand      	Pattern         	Category

[STATUS]
;ID              	Status/Setting

[PATTERNS]
;ID              	Multipliers

[CURVES]
;ID              	X-Value     	Y-Value

[CONTROLS]

[RULES]

[ENERGY]
 Global Efficiency  	75
 Global Price       	0
 Demand Charge      	0

[EMITTERS]
;Junction        	Coefficient

[QUALITY]
;Node            	InitQual

[SOURCES]
;Node            	Type        	Quality     	Pattern

[REACTIONS]
;Type     	Pipe/Tank       	Coefficient


[REACTIONS]
 Order Bulk            	1
 Order Tank            	1
 Order Wall            	1
 Global Bulk           	0
 Global Wall           	0
 Limiting Potential    	0
 Roughness Correlation 	0

[MIXING]
;Tank            	Model

[TIMES]
 Duration           	0
 Hydraulic Timestep 	1:00
 Quality Timestep   	0:05
 Pattern Timestep   	1:00
 Pattern Start      	0:00
 Report Timestep    	1:00
 Report Start       	0:00
 Start ClockTime    	12 am
 Statistic          	None

[REPORT]
 Status             	No
 Summary            	No
 Page               	0

[OPTIONS]
 Units              	LPS
 Headloss           	H-W
 Specific Gravity   	1
 Viscosity          	1
 Trials             	40
 Accuracy           	0.001
 CHECKFREQ          	2
 MAXCHECK           	10
 DAMPLIMIT          	0
 Unbalanced         	Continue 10
 Pattern            	1
 Demand Multiplier  	1.0
 Emitter Exponent   	0.5
 Quality            	None mg/L
 Diffusivity        	1
 Tolerance          	0.01

[COORDINATES]
;Node            	X-Coord           	Y-Coord
1               	-2260.030         	6736.470          
2               	-2260.030         	7905.760          
3               	-881.330          	7923.210          
4               	514.830           	7888.310          
5               	-951.130          	6736.470          
6               	1806.280          	7853.400          
7               	1771.380          	6684.120          
8               	1806.280          	5619.550          
9               	-898.780          	5532.290          
10              	-916.230          	4258.290          
11              	3289.700          	6684.120          
12              	3254.800          	5549.740          
13              	4755.670          	5479.930          
14              	3237.350          	4171.030          
15              	1003.490          	2739.970          
16              	4755.670          	6684.120          
17              	6134.380          	6614.310          
18              	6169.280          	7748.690          
19              	4703.320          	7748.690          
20              	4685.860          	8883.070          
21              	6221.640          	9685.860          
22              	986.040           	1553.230          
23              	7757.420          	8917.980          
24              	7739.970          	7731.240          
25              	6099.480          	5427.570          
26              	6134.380          	4240.840          
27              	4703.320          	4153.580          
28              	3184.990          	2670.160          
29              	6134.380          	1535.780          
30              	7757.420          	4258.290          
31              	7739.970          	5532.290          
32              	9450.260          	7766.140          
33              	11090.750         	7766.140          
34              	11125.650         	5532.290          
35              	9380.450          	5479.930          
99              	-2277.490         	5479.930          

[VERTICES]
;Link            	X-Coord           	Y-Coord
3               	-811.520          	7923.210          
4               	-218.150          	8342.060          
5               	1125.650          	8307.160          
6               	2207.680          	7347.290          
7               	2696.340          	6963.350          
8               	4109.950          	7015.710          
9               	5471.200          	6876.090          

[LABELS]
;X-Coord             Y-Coord             Label & Anchor Node

[BACKDROP]
  DIMENSIONS  	-2947.647         	1128.276          	11795.807         	10093.364         
 UNITS          	None
 FILE           	
 OFFSET         	0.00            	0.00            

[END]
